Circuit: * C:\Users\gundo\Desktop\P&E\power-and-electrical\LTSpice-TIMB_2\Current-divider.asc

Direct Newton iteration for .op point succeeded.

Date: Sun Jul 03 17:11:48 2022
Total elapsed time: 0.092 seconds.

tnom = 27
temp = 27
method = modified trap
totiter = 2093
traniter = 2090
tranpoints = 1046
accept = 1046
rejected = 0
matrix size = 2
fillins = 0
solver = Normal
Matrix Compiler1:       3 opcodes  0.0/[0.0]/0.0
Matrix Compiler2: 116 bytes object code size  0.0/0.0/[0.0]

