Circuit: * C:\Users\gundo\Desktop\P&E\power-and-electrical\LTSpice-TIMB_2\LT1521.asc

Direct Newton iteration for .op point succeeded.
Ignoring empty pin current: Ix(u1:4)
Ignoring empty pin current: Ix(u1:6)
Ignoring empty pin current: Ix(u1:7)
Ignoring empty pin current: Ix(u1:4)
Ignoring empty pin current: Ix(u1:6)
Ignoring empty pin current: Ix(u1:7)

Date: Sun Jul 03 17:23:05 2022
Total elapsed time: 0.077 seconds.

tnom = 27
temp = 27
method = modified trap
totiter = 2593
traniter = 2566
tranpoints = 1189
accept = 1151
rejected = 38
matrix size = 16
fillins = 8
solver = Normal
Matrix Compiler1: 1.60 KB object code size  0.5/0.3/[0.2]
Matrix Compiler2: off  [0.2]/0.3/0.4

