Circuit: * C:\Users\rylee\OneDrive\Desktop\git\power-and-electrical\LTSpice-TIMB_2\RBF_Logic.asc

Direct Newton iteration failed to find .op point.  (Use ".option noopiter" to skip.)
Starting Gmin stepping
Gmin = 10
Gmin = 1.07374
Gmin = 0.115292
Gmin = 0.0123794
Gmin = 0.00132923
Gmin = 0.000142725
Gmin = 1.5325e-005
Gmin = 1.6455e-006
Gmin = 1.76685e-007
Gmin = 1.89714e-008
Gmin = 2.03704e-009
Gmin = 2.18725e-010
Gmin = 2.34854e-011
Gmin = 2.52173e-012
Gmin = 2.70769e-013
Gmin = 0
Gmin stepping succeeded in finding the operating point.


Date: Tue Jun 07 21:43:27 2022
Total elapsed time: 0.411 seconds.

tnom = 27
temp = 27
method = modified trap
totiter = 9171
traniter = 8775
tranpoints = 3939
accept = 3865
rejected = 74
matrix size = 46
fillins = 0
solver = Normal
Thread vector: 2.6/5.0[1] 1.3/1.1[2] 0.4/0.6[1] 0.1/0.8[1]  2592/500
Matrix Compiler1: 1.36 KB object code size  0.4/0.3/[0.1]
Matrix Compiler2: off  [0.2]/0.4/0.6

