Circuit: * C:\Users\gundo\Desktop\P&E\power-and-electrical\LTSpice-TIMB\Draft2.asc

WARNING: Less than two connections to node N001.  This node is used by V1.
Direct Newton iteration for .op point succeeded.

Date: Sun Jun 12 12:27:40 2022
Total elapsed time: 0.088 seconds.

tnom = 27
temp = 27
method = modified trap
totiter = 2125
traniter = 2096
tranpoints = 1049
accept = 1049
rejected = 0
matrix size = 9
fillins = 2
solver = Normal
Matrix Compiler1: 750 bytes object code size  0.2/0.1/[0.1]
Matrix Compiler2: 763 bytes object code size  0.1/0.1/[0.1]

