Circuit: * C:\RADSAT-SK\P&E\LTSpice TIMB\RBF_inhibit.asc

R201: both pins shorted together -- ignoring.
D2: both pins shorted together -- ignoring.
