Circuit: * C:\Users\rylee\OneDrive\Desktop\git\power-and-electrical\LTSpice-TIMB\RBF_Buck_Booster.asc

Error on line 20 : d2 0 2 bzx84c6v2l 0 1 2
	 Unknown parameter "1"
WARNING: Node NC_02 is floating.

WARNING: Less than two connections to node NC_02.  This node is used by R:M3:G.
Direct Newton iteration failed to find .op point.  (Use ".option noopiter" to skip.)
Starting Gmin stepping
Gmin = 10
Gmin = 1.07374
Gmin = 0.115292
Gmin = 0.0123794
Gmin = 0.00132923
Gmin = 0.000142725
Gmin = 1.5325e-005
Gmin = 1.6455e-006
Gmin = 1.76685e-007
Gmin = 1.89714e-008
Gmin = 2.03704e-009
Gmin = 2.18725e-010
Gmin = 2.34854e-011
Gmin = 2.52173e-012
Gmin = 2.70769e-013
Gmin = 0
Gmin stepping succeeded in finding the operating point.

Changing Tseed to 1e-008
Changing Tseed to 1e-010
