Circuit: * C:\Users\rylee\OneDrive\Desktop\git\power-and-electrical\LTSpice-TIMB\timer_simulation.asc

Direct Newton iteration failed to find .op point.  (Use ".option noopiter" to skip.)
Starting Gmin stepping
Gmin = 10
Gmin = 1.07374
Gmin = 0.115292
Gmin = 0.0123794
Gmin = 0.00132923
Gmin = 0.000142725
Gmin = 1.5325e-005
Gmin = 1.6455e-006
Gmin = 1.76685e-007
Gmin = 1.89714e-008
Gmin = 2.03704e-009
Gmin = 2.18725e-010
Gmin = 2.34854e-011
Gmin = 2.52173e-012
Gmin = 2.70769e-013
Gmin = 0
Gmin stepping succeeded in finding the operating point.


Date: Sun May 29 23:58:54 2022
Total elapsed time: 0.442 seconds.

tnom = 27
temp = 27
method = modified trap
totiter = 8618
traniter = 8133
tranpoints = 3898
accept = 3829
rejected = 69
matrix size = 58
fillins = 40
solver = Normal
Thread vector: 8.4/6.7[2] 4.2/4.5[1] 1.9/1.6[2] 0.4/1.5[1]  2592/500
Matrix Compiler1: 4.66 KB object code size  1.9/1.1/[0.5]
Matrix Compiler2: 5.39 KB object code size  1.1/2.0/[0.9]

